# generated using pymatgen
data_H2O
_symmetry_space_group_name_H-M   'P 1'
_cell_length_a   12.47160060
_cell_length_b   12.47160060
_cell_length_c   6.05180635
_cell_angle_alpha   90.00000000
_cell_angle_beta   90.00000000
_cell_angle_gamma   120.00000000
_symmetry_Int_Tables_number   1
_chemical_formula_structural   H2O
_chemical_formula_sum   'H72 O36'
_cell_volume   815.19225204
_cell_formula_units_Z   36
loop_
 _symmetry_equiv_pos_site_id
 _symmetry_equiv_pos_as_xyz
  1  'x, y, z'
loop_
 _atom_type_symbol
 _atom_type_oxidation_number
  H+  1.0
  O2-  -2.0
loop_
 _atom_site_type_symbol
 _atom_site_label
 _atom_site_symmetry_multiplicity
 _atom_site_fract_x
 _atom_site_fract_y
 _atom_site_fract_z
 _atom_site_occupancy
  H+  H0  1  0.23900040  0.30825273  0.56535988  1
  H+  H1  1  0.40258566  0.42766627  0.23202655  1
  H+  H2  1  0.35841394  0.26408100  0.89869321  1
  H+  H3  1  0.42766627  0.02508060  0.76797345  1
  H+  H4  1  0.26408100  0.90566707  0.10130679  1
  H+  H5  1  0.30825273  0.06925233  0.43464012  1
  H+  H6  1  0.43586973  0.88109642  0.15135275  1
  H+  H7  1  0.11189336  0.89746360  0.48468608  1
  H+  H8  1  0.45223691  0.22143998  0.81801942  1
  H+  H9  1  0.23079694  0.45223691  0.18198058  1
  H+  H10  1  0.55477331  0.43586973  0.84864725  1
  H+  H11  1  0.21442975  0.11189336  0.51531392  1
  H+  H12  1  0.14889240  0.20059445  0.99221997  1
  H+  H13  1  0.46607222  0.28163129  0.32555330  1
  H+  H14  1  0.38503538  0.51777426  0.65888663  1
  H+  H15  1  0.51777426  0.13273889  0.34111337  1
  H+  H16  1  0.20059445  0.05170204  0.00778003  1
  H+  H17  1  0.28163129  0.81555907  0.67444670  1
  H+  H18  1  0.22213247  0.21734086  0.20943287  1
  H+  H19  1  0.44932581  0.33812495  0.54276620  1
  H+  H20  1  0.32854172  0.44453419  0.87609953  1
  H+  H21  1  0.44453419  0.11599248  0.12390047  1
  H+  H22  1  0.21734086  0.99520838  0.79056713  1
  H+  H23  1  0.33812495  0.88879914  0.45723380  1
  H+  H24  1  0.90566707  0.64158606  0.89869321  1
  H+  H25  1  0.06925233  0.76099960  0.56535988  1
  H+  H26  1  0.02508060  0.59741434  0.23202655  1
  H+  H27  1  0.09433293  0.35841394  0.10130679  1
  H+  H28  1  0.93074767  0.23900040  0.43464012  1
  H+  H29  1  0.97491940  0.40258566  0.76797345  1
  H+  H30  1  0.10253640  0.21442975  0.48468608  1
  H+  H31  1  0.77856002  0.23079694  0.81801942  1
  H+  H32  1  0.11890358  0.55477331  0.15135275  1
  H+  H33  1  0.89746360  0.78557025  0.51531392  1
  H+  H34  1  0.22143998  0.76920306  0.18198058  1
  H+  H35  1  0.88109642  0.44522669  0.84864725  1
  H+  H36  1  0.81555907  0.53392778  0.32555330  1
  H+  H37  1  0.13273889  0.61496462  0.65888663  1
  H+  H38  1  0.05170204  0.85110760  0.99221997  1
  H+  H39  1  0.18444093  0.46607222  0.67444670  1
  H+  H40  1  0.86726111  0.38503538  0.34111337  1
  H+  H41  1  0.94829796  0.14889240  0.00778003  1
  H+  H42  1  0.88879914  0.55067419  0.54276620  1
  H+  H43  1  0.11599248  0.67145828  0.87609953  1
  H+  H44  1  0.99520838  0.77786753  0.20943287  1
  H+  H45  1  0.11120086  0.44932581  0.45723380  1
  H+  H46  1  0.88400752  0.32854172  0.12390047  1
  H+  H47  1  0.00479162  0.22213247  0.79056713  1
  H+  H48  1  0.57233373  0.97491940  0.23202655  1
  H+  H49  1  0.73591900  0.09433293  0.89869321  1
  H+  H50  1  0.69174727  0.93074767  0.56535988  1
  H+  H51  1  0.76099960  0.69174727  0.43464012  1
  H+  H52  1  0.59741434  0.57233373  0.76797345  1
  H+  H53  1  0.64158606  0.73591900  0.10130679  1
  H+  H54  1  0.76920306  0.54776309  0.81801942  1
  H+  H55  1  0.44522669  0.56413027  0.15135275  1
  H+  H56  1  0.78557025  0.88810664  0.48468608  1
  H+  H57  1  0.56413027  0.11890358  0.84864725  1
  H+  H58  1  0.88810664  0.10253640  0.51531392  1
  H+  H59  1  0.54776309  0.77856002  0.18198058  1
  H+  H60  1  0.48222574  0.86726111  0.65888663  1
  H+  H61  1  0.79940555  0.94829796  0.99221997  1
  H+  H62  1  0.71836871  0.18444093  0.32555330  1
  H+  H63  1  0.85110760  0.79940555  0.00778003  1
  H+  H64  1  0.53392778  0.71836871  0.67444670  1
  H+  H65  1  0.61496462  0.48222574  0.34111337  1
  H+  H66  1  0.55546581  0.88400752  0.87609953  1
  H+  H67  1  0.78265914  0.00479162  0.20943287  1
  H+  H68  1  0.66187505  0.11120086  0.54276620  1
  H+  H69  1  0.77786753  0.78265914  0.79056713  1
  H+  H70  1  0.55067419  0.66187505  0.45723380  1
  H+  H71  1  0.67145828  0.55546581  0.12390047  1
  O2-  O72  1  0.43543117  0.29109786  0.81476039  1
  O2-  O73  1  0.18900002  0.23123550  0.48142706  1
  O2-  O74  1  0.37556881  0.47766664  0.14809372  1
  O2-  O75  1  0.23123550  0.04223547  0.51857294  1
  O2-  O76  1  0.47766664  0.10209784  0.85190628  1
  O2-  O77  1  0.29109786  0.85566669  0.18523961  1
  O2-  O78  1  0.35812074  0.88685338  0.61465180  1
  O2-  O79  1  0.19539930  0.97521259  0.94798513  1
  O2-  O80  1  0.44647996  0.13793403  0.28131846  1
  O2-  O81  1  0.30854592  0.44647996  0.71868154  1
  O2-  O82  1  0.47126737  0.35812074  0.38534820  1
  O2-  O83  1  0.22018671  0.19539930  0.05201487  1
  O2-  O84  1  0.10209784  0.62443119  0.14809372  1
  O2-  O85  1  0.85566669  0.56456883  0.81476039  1
  O2-  O86  1  0.04223547  0.81099998  0.48142706  1
  O2-  O87  1  0.89790216  0.37556881  0.85190628  1
  O2-  O88  1  0.14433331  0.43543117  0.18523961  1
  O2-  O89  1  0.95776453  0.18900002  0.51857294  1
  O2-  O90  1  0.02478741  0.22018671  0.94798513  1
  O2-  O91  1  0.86206597  0.30854592  0.28131846  1
  O2-  O92  1  0.11314662  0.47126737  0.61465180  1
  O2-  O93  1  0.97521259  0.77981329  0.05201487  1
  O2-  O94  1  0.13793403  0.69145408  0.71868154  1
  O2-  O95  1  0.88685338  0.52873263  0.38534820  1
  O2-  O96  1  0.76876450  0.95776453  0.48142706  1
  O2-  O97  1  0.52233336  0.89790216  0.14809372  1
  O2-  O98  1  0.70890214  0.14433331  0.81476039  1
  O2-  O99  1  0.56456883  0.70890214  0.18523961  1
  O2-  O100  1  0.81099998  0.76876450  0.51857294  1
  O2-  O101  1  0.62443119  0.52233336  0.85190628  1
  O2-  O102  1  0.69145408  0.55352004  0.28131846  1
  O2-  O103  1  0.52873263  0.64187926  0.61465180  1
  O2-  O104  1  0.77981329  0.80460070  0.94798513  1
  O2-  O105  1  0.64187926  0.11314662  0.38534820  1
  O2-  O106  1  0.80460070  0.02478741  0.05201487  1
  O2-  O107  1  0.55352004  0.86206597  0.71868154  1
