data_image0
_chemical_formula_structural       H16O8
_chemical_formula_sum              "H16 O8"
_cell_length_a       4.32660432
_cell_length_b       7.52601076
_cell_length_c       7.06770668
_cell_angle_alpha    90.0
_cell_angle_beta     90.0
_cell_angle_gamma    90.0

_space_group_name_H-M_alt    "P 1"
_space_group_IT_number       1

loop_
  _space_group_symop_operation_xyz
  'x, y, z'

loop_
  _atom_site_type_symbol
  _atom_site_label
  _atom_site_symmetry_multiplicity
  _atom_site_fract_x
  _atom_site_fract_y
  _atom_site_fract_z
  _atom_site_occupancy
  H   H1        1.0  0.5  0.16396926  0.29929821  1.0000
  H   H2        1.0  0.0  0.33603074  0.7992982099999998  1.0000
  H   H3        1.0  0.5  0.03953027  0.48354167999999986  1.0000
  H   H4        1.0  0.0  0.4604697299999999  0.9835416799999998  1.0000
  H   H5        1.0  0.18499514  0.26787625  0.5170875599999999  1.0000
  H   H6        1.0  0.81500485  0.26787625  0.5170875599999999  1.0000
  H   H7        1.0  0.31500486  0.23212374999999993  0.017087559999999998  1.0000
  H   H8        1.0  0.68499515  0.23212374999999993  0.017087559999999998  1.0000
  H   H9        1.0  0.0  0.66396926  0.29929821  1.0000
  H   H10       1.0  0.5  0.8360307399999998  0.7992982099999998  1.0000
  H   H11       1.0  0.0  0.5395302699999998  0.48354167999999986  1.0000
  H   H12       1.0  0.5  0.9604697299999998  0.9835416799999998  1.0000
  H   H13       1.0  0.68499515  0.76787625  0.5170875599999999  1.0000
  H   H14       1.0  0.31500485  0.76787625  0.5170875599999999  1.0000
  H   H15       1.0  0.81500485  0.7321237499999997  0.017087559999999998  1.0000
  H   H16       1.0  0.18499515  0.7321237499999997  0.017087559999999998  1.0000
  O   O1        1.0  0.5  0.16533728999999994  0.4401880099999999  1.0000
  O   O2        1.0  0.0  0.33466270999999986  0.94018801  1.0000
  O   O3        1.0  0.0  0.33248137  0.56479997  1.0000
  O   O4        1.0  0.5  0.16751863  0.06479996999999998  1.0000
  O   O5        1.0  0.0  0.6653372899999997  0.4401880099999999  1.0000
  O   O6        1.0  0.5  0.8346627099999998  0.94018801  1.0000
  O   O7        1.0  0.5  0.8324813699999998  0.56479997  1.0000
  O   O8        1.0  0.0  0.6675186299999998  0.06479996999999998  1.0000
